[Format]      =  4.0
[Frequency]   =  0
[Precision]   =  1e-008
[MinAngle]    =  20
[DoSmartMesh] =  1
[Depth]       =  100
[LengthUnits] =  millimeters
[ProblemType] =  planar
[Coordinates] =  cartesian
[ACSolver]    =  0
[PrevType]    =  0
[PrevSoln]    =  ""
[Comment]     =  "Add comments here."
[PointProps]   = 0
[BdryProps]   = 0
[BlockProps]  = 5
  <BeginBlock>
    <BlockName> = "Air"
    <Mu_x> = 1
    <Mu_y> = 1
    <H_c> = 0
    <H_cAngle> = 0
    <J_re> = 0
    <J_im> = 0
    <Sigma> = 0
    <d_lam> = 0
    <Phi_h> = 0
    <Phi_hx> = 0
    <Phi_hy> = 0
    <LamType> = 0
    <LamFill> = 1
    <NStrands> = 0
    <WireD> = 0
    <BHPoints> = 0
  <EndBlock>
  <BeginBlock>
    <BlockName> = "1020 Steel"
    <Mu_x> = 760
    <Mu_y> = 760
    <H_c> = 0
    <H_cAngle> = 0
    <J_re> = 0
    <J_im> = 0
    <Sigma> = 0
    <d_lam> = 0
    <Phi_h> = 20
    <Phi_hx> = 0
    <Phi_hy> = 0
    <LamType> = 0
    <LamFill> = 1
    <NStrands> = 0
    <WireD> = 0
    <BHPoints> = 0
  <EndBlock>
  <BeginBlock>
    <BlockName> = "M-19 Steel"
    <Mu_x> = 7000
    <Mu_y> = 7000
    <H_c> = 0
    <H_cAngle> = 0
    <J_re> = 0
    <J_im> = 0
    <Sigma> = 0
    <d_lam> = 0
    <Phi_h> = 0
    <Phi_hx> = 0
    <Phi_hy> = 0
    <LamType> = 0
    <LamFill> = 1
    <NStrands> = 0
    <WireD> = 0
    <BHPoints> = 0
  <EndBlock>
  <BeginBlock>
    <BlockName> = "20 AWG"
    <Mu_x> = 1
    <Mu_y> = 1
    <H_c> = 0
    <H_cAngle> = 0
    <J_re> = 0
    <J_im> = 0
    <Sigma> = 0
    <d_lam> = 0
    <Phi_h> = 0
    <Phi_hx> = 0
    <Phi_hy> = 0
    <LamType> = 0
    <LamFill> = 1
    <NStrands> = 1
    <WireD> = 0
    <BHPoints> = 0
  <EndBlock>
  <BeginBlock>
    <BlockName> = "Aluminum, 1100"
    <Mu_x> = 1
    <Mu_y> = 1
    <H_c> = 0
    <H_cAngle> = 0
    <J_re> = 0
    <J_im> = 0
    <Sigma> = 4.5999999999999996
    <d_lam> = 0
    <Phi_h> = 0
    <Phi_hx> = 0
    <Phi_hy> = 0
    <LamType> = 0
    <LamFill> = 1
    <NStrands> = 0
    <WireD> = 0
    <BHPoints> = 0
  <EndBlock>
[CircuitProps]  = 0
[NumPoints] = 874
41.9380592861	-5.4655007356	0	0
52.524742519100002	-7.3322186258000004	0	0
42.250000182000001	1.9000000531000001	0	0
53.0000000685	1.9000000531000001	0	0
40.296178664199999	2.5216384519999999	0	0
40.931138181999998	2.5771910531	0	0
40.121867082500003	-4.5140288748000001	0	0
40.756826746400002	-4.5695798056000001	0	0
40.121867184700001	4.5140280396000003	0	0
40.756827183200002	4.5695800394999999	0	0
41.938059181	5.4655010723000004	0	0
52.524742067299997	7.3322190522000001	0	0
40.296178607100003	-2.5216392911000001	0	0
40.93113864	-2.5771908976	0	0
42.2500001242	-1.8999997021999999	0	0
52.999999684700001	-1.8999995536000001	0	0
40.351851683699998	-12.6649350491	0	0
50.4535472504	-16.341651551000002	0	0
38.7284728753	-11.4125397173	0	0
39.344139757299999	-11.577506293200001	0	0
39.246111036599999	-9.4806878869000002	0	0
39.861778164699999	-9.6456551922999996	0	0
41.278196196499998	-9.2077699461000009	0	0
51.864879134299997	-11.0744876333	0	0
37.539573490199999	-19.479551718700002	0	0
46.849346482500003	-24.8545516619	0	0
36.158333620699999	-17.964286314399999	0	0
36.736000994100003	-18.2336561095	0	0
37.003570245100001	-16.151670577600001	0	0
37.5812377341	-16.421041133700001	0	0
39.052175168399998	-16.2357667584	0	0
49.153870479600002	-19.912483009199999	0	0
33.5866743554	-25.702292065400002	0	0
41.821652031900001	-32.612258796500001	0	0
32.489541699299998	-23.9701971611	0	0
33.0116574332	-24.335785510400001	0	0
33.6366946996	-22.3318929297	0	0
34.158810415300003	-22.697482048600001	0	0
35.639573562400003	-22.770448012300001	0	0
44.949346346799999	-28.145447663900001	0	0
28.613261119299999	-31.144081272499999	0	0
35.523227850399998	-39.379058949099999	0	0
27.833571497200001	-29.247785695499999	0	0
28.284271369300001	-29.698484382	0	0
29.24778521	-27.833572014600001	0	0
29.698484930500001	-28.284271455900001	0	0
31.144081551500001	-28.6132607246	0	0
39.379059073900002	-35.523227132400002	0	0
22.770448426400002	-35.639573328700003	0	0
28.1454483696	-44.949346321100002	0	0
22.331892312800001	-33.636695060400001	0	0
22.6974820356	-34.158809832599999	0	0
23.970196570199999	-32.489542097200001	0	0
24.3357860126	-33.011657586299997	0	0
25.702292385700002	-33.586673987799998	0	0
32.612259021100002	-41.821651319099999	0	0
16.235767183699998	-39.052174982700002	0	0
19.9124836857	-49.153870549399997	0	0
16.1516698844	-37.003570465800003	0	0
16.421041199000001	-37.581237130600002	0	0
17.9642856404	-36.158333882500003	0	0
18.2336565544	-36.736001204600001	0	0
19.479552075000001	-37.539573156300001	0	0
24.854551983899999	-46.849345792100003	0	0
9.2077703742000008	-41.278196060100001	0	0
11.074488264399999	-51.864879293100003	0	0
9.4806871429000008	-39.246111106199997	0	0
9.6456553383999992	-39.861777554200003	0	0
11.412538984999999	-38.728472988599997	0	0
11.5775066718	-39.344140014499999	0	0
12.6649354349	-40.351851389300002	0	0
16.341651964899999	-50.453546598899997	0	0
1.9000001245	-42.250000036800003	0	0
1.9000001245	-52.999999923200001	0	0
2.5216385233	-40.296178519000001	0	0
2.5771911245000001	-40.9311380368	0	0
4.514028111	-40.121867039500003	0	0
4.5695801107999996	-40.756827037999997	0	0
5.4655011436000001	-41.938059035800002	0	0
7.3322191235999998	-52.524741921999997	0	0
-5.4655006643000004	-41.9380591408	0	0
-7.3322185544999998	-52.524742373899997	0	0
-4.5140288034999996	-40.121866937199997	0	0
-4.5695797343000004	-40.756826601100002	0	0
-2.5216392197999999	-40.296178461799997	0	0
-2.5771908262999998	-40.931138494800003	0	0
-1.8999996309	-42.249999979000002	0	0
-1.8999994822999999	-52.999999539400001	0	0
-12.6649349777	-40.351851538399998	0	0
-16.341651479599999	-50.453547105200002	0	0
-11.412539646000001	-38.72847273	0	0
-11.5775062219	-39.344139611999999	0	0
-9.4806878155999996	-39.246110891400001	0	0
-9.6456551209000008	-39.861778019399999	0	0
-9.2077698747000003	-41.278196051199998	0	0
-11.074487562	-51.864878989099999	0	0
-19.479551647400001	-37.539573344899999	0	0
-24.8545515906	-46.849346337199997	0	0
-17.964286243099998	-36.158333475399999	0	0
-18.233656038100001	-36.736000848800003	0	0
-16.151670506199999	-37.003570099800001	0	0
-16.4210410624	-37.581237588800001	0	0
-16.235766687000002	-39.052175023099998	0	0
-19.9124829378	-49.153870334399997	0	0
-25.702291993999999	-33.5866742101	0	0
-32.6122587252	-41.821651886700003	0	0
-23.970197089799999	-32.489541553999999	0	0
-24.3357854391	-33.011657288000002	0	0
-22.3318928584	-33.636694554400002	0	0
-22.697481977300001	-34.158810270099998	0	0
-22.770447941	-35.639573417100003	0	0
-28.145447592499998	-44.949346201499999	0	0
-31.144081201199999	-28.613260973999999	0	0
-39.379058877699997	-35.5232277052	0	0
-29.2477856241	-27.833571351900002	0	0
-29.698484310600001	-28.284271224000001	0	0
-27.833571943300001	-29.247785064799999	0	0
-28.284271384499998	-29.6984847853	0	0
-28.613260653299999	-31.1440814063	0	0
-35.523227061100002	-39.379058928600003	0	0
-35.639573257400002	-22.770448281099998	0	0
-44.9493462497	-28.145448224399999	0	0
-33.6366949891	-22.3318921676	0	0
-34.158809761299999	-22.697481890300001	0	0
-32.489542025799999	-23.970196425000001	0	0
-33.011657515000003	-24.3357858673	0	0
-33.586673916400002	-25.702292240399998	0	0
-41.821651247699997	-32.612258875899997	0	0
-39.0521749113	-16.235767038500001	0	0
-49.153870478100004	-19.9124835404	0	0
-37.003570394500002	-16.151669739100001	0	0
-37.581237059199999	-16.4210410538	0	0
-36.1583338111	-17.9642854951	0	0
-36.7360011333	-18.233656409200002	0	0
-37.539573085000001	-19.479551929700001	0	0
-46.849345720700001	-24.854551838599999	0	0
-41.278195988699999	-9.2077702288999994	0	0
-51.864879221800003	-11.0744881191	0	0
-39.246111034800002	-9.4806869975999994	0	0
-39.861777482900003	-9.6456551930999996	0	0
-38.728472917300003	-11.4125388398	0	0
-39.344139943099997	-11.577506526600001	0	0
-40.351851318000001	-12.664935289600001	0	0
-50.453546527599997	-16.341651819700001	0	0
-42.249999965400001	-1.8999999792	0	0
-52.9999998519	-1.8999999792	0	0
-40.296178447599999	-2.5216383781	0	0
-40.931137965399998	-2.5771909792000001	0	0
-40.121866968100001	-4.5140279657000004	0	0
-40.756826966600002	-4.5695799656	0	0
-41.9380589644	-5.4655009983999996	0	0
-52.524741850700003	-7.3322189783000002	0	0
-41.9380590695	5.4655008094999999	0	0
-52.524742302500002	7.3322186997000003	0	0
-40.121866865800001	4.5140289487	0	0
-40.756826529800001	4.5695798796	0	0
-40.296178390500003	2.521639365	0	0
-40.9311384234	2.5771909714999999	0	0
-42.249999907599999	1.8999997761	0	0
-52.9999994681	1.8999996275	0	0
-40.351851467099998	12.664935122999999	0	0
-50.4535470338	16.341651624899999	0	0
-38.728472658699999	11.4125397913	0	0
-39.344139540699999	11.5775063672	0	0
-39.246110819999998	9.4806879607999992	0	0
-39.861777948099999	9.6456552662000004	0	0
-41.278195979899998	9.2077700199999999	0	0
-51.864878917699997	11.074487707299999	0	0
-37.539573273499997	19.479551792599999	0	0
-46.849346265900003	24.854551735899999	0	0
-36.158333404099999	17.964286388400001	0	0
-36.736000777500003	18.233656183400001	0	0
-37.0035700285	16.151670651500002	0	0
-37.5812375175	16.421041207599998	0	0
-39.052174951700003	16.235766832300001	0	0
-49.153870263000002	19.9124830831	0	0
-33.586674138799999	25.702292139299999	0	0
-41.821651815300001	32.612258870399998	0	0
-32.489541482699998	23.970197235099999	0	0
-33.0116572166	24.335785584300002	0	0
-33.636694482999999	22.331893003699999	0	0
-34.158810198700003	22.697482122499999	0	0
-35.639573345800002	22.770448086199998	0	0
-44.949346130099997	28.145447737800001	0	0
-28.613260902699999	31.1440813464	0	0
-35.523227633799998	39.379059023000003	0	0
-27.833571280499999	29.2477857694	0	0
-28.284271152700001	29.698484455900001	0	0
-29.2477849934	27.833572088499999	0	0
-29.698484713900001	28.284271529800002	0	0
-31.144081334900001	28.613260798599999	0	0
-39.379058857300002	35.5232272063	0	0
-22.770448209800001	35.6395734026	0	0
-28.145448153	44.949346394999999	0	0
-22.331892096200001	33.636695134299998	0	0
-22.697481819	34.158809906499997	0	0
-23.970196353599999	32.489542171099998	0	0
-24.335785796	33.011657660200001	0	0
-25.702292169100001	33.586674061700002	0	0
-32.612258804500001	41.821651393000003	0	0
-16.235766967099998	39.052175056599999	0	0
-19.912483469000001	49.153870623400003	0	0
-16.1516696678	37.0035705397	0	0
-16.421040982400001	37.581237204499999	0	0
-17.9642854238	36.1583339564	0	0
-18.233656337799999	36.736001278499998	0	0
-19.479551858400001	37.539573230199998	0	0
-24.854551767299998	46.849345866	0	0
-9.2077701576000006	41.278196133999998	0	0
-11.074488047799999	51.864879367	0	0
-9.4806869263000006	39.246111180100002	0	0
-9.6456551218000008	39.8617776281	0	0
-11.412538768399999	38.728473062600003	0	0
-11.5775064552	39.344140088400003	0	0
-12.6649352183	40.351851463199999	0	0
-16.341651748299999	50.453546672800002	0	0
-1.8999999079000001	42.2500001107	0	0
-1.8999999079000001	52.9999999972	0	0
-2.5216383066999999	40.296178592899999	0	0
-2.5771909078999999	40.931138110699997	0	0
-4.5140278942999998	40.1218671134	0	0
-4.5695798942000003	40.756827111900002	0	0
-5.4655009269999999	41.938059109699999	0	0
-7.3322189069999997	52.524741995900001	0	0
5.4655008808999996	41.938059214699997	0	0
7.3322187711	52.524742447800001	0	0
4.5140290200999997	40.121867011100001	0	0
4.5695799508999997	40.756826675100001	0	0
2.5216394364000001	40.296178535800003	0	0
2.5771910429	40.9311385687	0	0
1.8999998474999999	42.250000052899999	0	0
1.8999996989000001	52.9999996134	0	0
12.6649351943	40.351851612300003	0	0
16.341651696300001	50.453547179099999	0	0
11.412539862599999	38.728472803999999	0	0
11.5775064385	39.344139685999998	0	0
9.4806880321999998	39.246110965299998	0	0
9.6456553374999991	39.861778093300003	0	0
9.2077700914000005	41.278196125100003	0	0
11.0744877786	51.864879062999997	0	0
19.479551864000001	37.539573418800003	0	0
24.8545518072	46.849346411200003	0	0
17.964286459699998	36.158333549300004	0	0
18.2336562548	36.736000922700001	0	0
16.151670722799999	37.003570173699998	0	0
16.421041279000001	37.5812376628	0	0
16.235766903599998	39.052175097000003	0	0
19.9124831544	49.153870408300001	0	0
25.7022922106	33.586674283999997	0	0
32.6122589418	41.821651960600001	0	0
23.970197306399999	32.489541627900003	0	0
24.335785655700001	33.011657361899999	0	0
22.331893075	33.636694628299999	0	0
22.697482193900001	34.158810344000003	0	0
22.770448157600001	35.639573491	0	0
28.145447809099998	44.949346275400003	0	0
31.144081417799999	28.6132610479	0	0
39.379059094299997	35.523227779099997	0	0
29.247785840700001	27.833571425799999	0	0
29.698484527200002	28.284271297899998	0	0
27.833572159900001	29.247785138699999	0	0
28.284271601099999	29.698484859200001	0	0
28.6132608699	31.144081480200001	0	0
35.523227277700002	39.3790590025	0	0
35.639573474000002	22.770448354999999	0	0
44.9493464663	28.1454482983	0	0
33.636695205700001	22.3318922415	0	0
34.158809977899999	22.6974819643	0	0
32.489542242399999	23.970196498899998	0	0
33.011657731600003	24.335785941200001	0	0
33.586674133000002	25.702292314299999	0	0
41.821651464299997	32.612258949800001	0	0
39.052175128000002	16.235767112400001	0	0
49.153870694699997	19.912483614300001	0	0
37.003570611100002	16.151669813000002	0	0
37.5812372758	16.421041127700001	0	0
36.1583340277	17.964285569000001	0	0
36.7360013499	18.233656483099999	0	0
37.539573301600001	19.479552003599998	0	0
46.849345937300001	24.8545519125	0	0
41.278196205299999	9.2077703029000002	0	0
51.864879438400003	11.074488193100001	0	0
39.246111251400002	9.4806870715000002	0	0
39.861777699500003	9.6456552670000004	0	0
38.728473133900003	11.412538913700001	0	0
39.344140159699997	11.5775066005	0	0
40.351851534600002	12.6649353635	0	0
50.453546744199997	16.341651893600002	0	0
53.707932830099999	5.6087404733000001	0	0
40.783991626000002	4.2590882347000001	0	0
53.865936197899998	3.8027537397	0	0
40.903973741000001	2.8876828375999999	0	0
53.707932847999999	-5.6087402935000004	0	0
40.783991331599999	-4.2590880527000001	0	0
53.865936211600001	-3.8027535595000002	0	0
40.9039740626	-2.8876827094999999	0	0
51.918041135999999	-14.8498155909	0	0
39.424807983299999	-11.2764487078	0	0
52.387250378700003	-13.0987028496	0	0
39.781109945600001	-9.9467128758999994	0	0
48.5506460159	-23.639686756100001	0	0
36.867721794300003	-17.951180175099999	0	0
49.316804452299998	-21.996654681900001	0	0
37.449516933200002	-16.703517204800001	0	0
43.7080640844	-31.7112780014	0	0
33.190428534500001	-24.080474116400001	0	0
44.747892378099998	-30.226249292599999	0	0
33.980039299200001	-22.952793615800001	0	0
37.537434742999999	-38.819338111299999	0	0
28.504660898899999	-29.478095037100001	0	0
38.8193382376	-37.5374346137	0	0
29.4780953657	-28.504661007500001	0	0
30.226249441899999	-44.747892276199998	0	0
22.952793566	-33.9800389567	0	0
31.711278148200002	-43.708063979000002	0	0
24.080474421200002	-33.1904286985	0	0
21.996654846599998	-49.316804377799997	0	0
16.703517215200002	-37.449516587300003	0	0
23.639686918999999	-48.550645937600002	0	0
17.951180446799999	-36.867722008699999	0	0
13.098703024700001	-52.387250334000001	0	0
9.9467129461999999	-39.781109606800001	0	0
14.849815765000001	-51.918041087200002	0	0
11.2764489382	-39.424808241599997	0	0
3.8027537397	-53.865936197899998	0	0
2.8876828375999999	-40.903973741000001	0	0
5.6087404733000001	-53.707932830099999	0	0
4.2590882347000001	-40.783991626000002	0	0
-5.6087402935000004	-53.707932847999999	0	0
-4.2590880527000001	-40.783991331599999	0	0
-3.8027535595000002	-53.865936211600001	0	0
-2.8876827094999999	-40.9039740626	0	0
-14.8498155909	-51.918041135999999	0	0
-11.2764487078	-39.424807983299999	0	0
-13.0987028496	-52.387250378700003	0	0
-9.9467128758999994	-39.781109945600001	0	0
-23.639686756100001	-48.5506460159	0	0
-17.951180175099999	-36.867721794300003	0	0
-21.996654681900001	-49.316804452299998	0	0
-16.703517204800001	-37.449516933200002	0	0
-31.7112780014	-43.7080640844	0	0
-24.080474116400001	-33.190428534500001	0	0
-30.226249292599999	-44.747892378099998	0	0
-22.952793615800001	-33.980039299200001	0	0
-38.819338111299999	-37.537434742999999	0	0
-29.478095037100001	-28.504660898899999	0	0
-37.5374346137	-38.8193382376	0	0
-28.504661007500001	-29.4780953657	0	0
-44.747892276199998	-30.226249441899999	0	0
-33.9800389567	-22.952793566	0	0
-43.708063979000002	-31.711278148200002	0	0
-33.1904286985	-24.080474421200002	0	0
-49.316804377799997	-21.996654846599998	0	0
-37.449516587300003	-16.703517215200002	0	0
-48.550645937600002	-23.639686918999999	0	0
-36.867722008699999	-17.951180446799999	0	0
-52.387250334000001	-13.098703024700001	0	0
-39.781109606800001	-9.9467129461999999	0	0
-51.918041087200002	-14.849815765000001	0	0
-39.424808241599997	-11.2764489382	0	0
-53.865936197899998	-3.8027537397	0	0
-40.903973741000001	-2.8876828375999999	0	0
-53.707932830099999	-5.6087404733000001	0	0
-40.783991626000002	-4.2590882347000001	0	0
-53.707932847999999	5.6087402935000004	0	0
-40.783991331599999	4.2590880527000001	0	0
-53.865936211600001	3.8027535595000002	0	0
-40.9039740626	2.8876827094999999	0	0
-51.918041135999999	14.8498155909	0	0
-39.424807983299999	11.2764487078	0	0
-52.387250378700003	13.0987028496	0	0
-39.781109945600001	9.9467128758999994	0	0
-48.5506460159	23.639686756100001	0	0
-36.867721794300003	17.951180175099999	0	0
-49.316804452299998	21.996654681900001	0	0
-37.449516933200002	16.703517204800001	0	0
-43.7080640844	31.711278001299998	0	0
-33.190428534500001	24.080474116400001	0	0
-44.747892378099998	30.226249292599999	0	0
-33.980039299200001	22.952793615800001	0	0
-37.537434742999999	38.819338111299999	0	0
-28.504660898899999	29.478095037100001	0	0
-38.8193382376	37.5374346137	0	0
-29.4780953657	28.504661007500001	0	0
-30.226249441899999	44.747892276199998	0	0
-22.952793566	33.9800389567	0	0
-31.711278148200002	43.708063979000002	0	0
-24.080474421200002	33.1904286985	0	0
-21.996654846599998	49.316804377799997	0	0
-16.703517215200002	37.449516587300003	0	0
-23.639686918999999	48.550645937600002	0	0
-17.951180446799999	36.867722008699999	0	0
-13.098703024700001	52.387250334000001	0	0
-9.9467129461999999	39.781109606800001	0	0
-14.849815765000001	51.918041087200002	0	0
-11.2764489382	39.424808241599997	0	0
-3.8027537397	53.865936197899998	0	0
-2.8876828375999999	40.903973741000001	0	0
-5.6087404733000001	53.707932830099999	0	0
-4.2590882347000001	40.783991626000002	0	0
5.6087402935000004	53.707932847999999	0	0
4.2590880527000001	40.783991331599999	0	0
3.8027535595000002	53.865936211600001	0	0
2.8876827094999999	40.9039740626	0	0
14.8498155909	51.918041135999999	0	0
11.2764487078	39.424807983299999	0	0
13.0987028496	52.387250378700003	0	0
9.9467128758999994	39.781109945600001	0	0
23.639686756100001	48.5506460159	0	0
17.951180175099999	36.867721794300003	0	0
21.996654681900001	49.316804452299998	0	0
16.703517204800001	37.449516933200002	0	0
31.7112780014	43.7080640844	0	0
24.080474116400001	33.190428534500001	0	0
30.226249292599999	44.747892378099998	0	0
22.952793615800001	33.980039299200001	0	0
38.819338111299999	37.537434742999999	0	0
29.478095037100001	28.504660898899999	0	0
37.5374346137	38.8193382376	0	0
28.504661007500001	29.4780953657	0	0
44.747892276199998	30.226249441899999	0	0
33.9800389567	22.952793566	0	0
43.708063979000002	31.711278148200002	0	0
33.1904286985	24.080474421200002	0	0
49.316804377799997	21.996654846599998	0	0
37.449516587300003	16.703517215200002	0	0
48.550645937600002	23.639686918999999	0	0
36.867722008699999	17.951180446799999	0	0
52.387250334000001	13.098703024700001	0	0
39.781109606800001	9.9467129461999999	0	0
51.918041087200002	14.849815765000001	0	0
39.424808241599997	11.2764489382	0	0
39.996874866399999	0.4999999658	0	0
39.499999973500003	0.49999996619999998	0	0
39.996874865000002	-0.50000007599999996	0	0
39.4999999729	-0.50000006549999998	0	0
25.486611971399999	-0.65773106530000003	0	0
37.510529972900002	-2.0125010655	0	0
39.226803027899997	-7.8267440904000001	0	0
38.740786043600004	-7.7234379909999999	0	0
39.018891326999999	-8.8048917317999997	0	0
38.532874345700002	-8.7015856224999997	0	0
24.792918374999999	-5.9423226281000003	0	0
36.272412398199997	-9.7674007753000005	0	0
25.066418254799999	-4.6556065858000002	0	0
37.1092573767	-5.8303546951999996	0	0
36.742331671000002	-15.8114218729	0	0
36.288413869700001	-15.609324646699999	0	0
36.335595009599999	-16.7249673683	0	0
35.8816772132	-16.522870133000001	0	0
23.015655280899999	-10.9672061776	0	0
33.449016352199997	-17.095418201899999	0	0
23.5507018401	-9.7654717903999995	0	0
35.086132167499997	-13.4183958791	0	0
32.652044115700001	-23.105064647900001	0	0
32.250063883499998	-22.813008913400001	0	0
32.064258837600001	-23.914081675399999	0	0
31.6622786121	-23.622025933	0	0
20.2324976146	-15.5127701905	0	0
29.163737790399999	-23.676283820199998	0	0
21.0057067511	-14.4485390178	0	0
31.5295746255	-20.419988774499998	0	0
27.1347055556	-29.388905227399999	0	0
26.802231357499998	-29.019655221600001	0	0
26.391560698100001	-30.058035860699999	0	0
26.059086508099998	-29.6887858487	0	0
16.5650827212	-19.380351707500001	0	0
23.603863949000001	-29.222382224	0	0
17.5426614854	-18.500135758199999	0	0
26.595023381699999	-26.529130174399999	0	0
20.431450160899999	-34.3883096247	0	0
20.1830127148	-33.958003344799998	0	0
19.565424720199999	-34.888309644400003	0	0
19.316987283300001	-34.458003360100001	0	0
12.173694229700001	-22.400918857600001	0	0
17.012387994000001	-33.491322300100002	0	0
13.3129177388	-21.743187792499999	0	0
20.498142004000002	-31.4788212847	0	0
12.8352423582	-37.884779878000003	0	0
12.681699572499999	-37.412223773199997	0	0
11.884185801599999	-38.193796883899999	0	0
11.730643025999999	-37.721240776800002	0	0
7.2502568895000001	-24.442458362099998	0	0
9.6773890542000007	-36.296530882299997	0	0
8.5013356094999999	-24.035958184799998	0	0
13.505393464699999	-35.052736852700001	0	0
4.6780728790000001	-39.725503459199999	0	0
4.6261353103999996	-39.231350498899999	0	0
3.6835509419000001	-39.8300319254	0	0
3.6316133835	-39.335878964899997	0	0
2.0099485376000001	-25.415745148100001	0	0
1.9194417803999999	-37.515406894900003	0	0
3.318204325	-25.278241866999998	0	0
5.9223944297999997	-37.094679618500003	0	0
-3.6835508279	-39.830031914999999	0	0
-3.6316132585999998	-39.335878954800002	0	0
-4.6780727647999996	-39.725503445999998	0	0
-4.6261351853999999	-39.231350487699999	0	0
-3.3182042052999998	-25.278241912799999	0	0
-5.9223943048000001	-37.094679607300002	0	0
-2.0099484059999999	-25.415745081099999	0	0
-1.9194416555	-37.515406884900003	0	0
-11.8841856831	-38.193796850399998	0	0
-11.730642896799999	-37.721240745899998	0	0
-12.835242238799999	-37.884779841799997	0	0
-12.681699442999999	-37.4122237411	0	0
-8.5013354969999995	-24.035958207499998	0	0
-13.505393335100001	-35.052736820699998	0	0
-7.2502567419000004	-24.442458276899998	0	0
-9.6773889250000007	-36.2965308514	0	0
-19.565424592300001	-34.888309589199999	0	0
-19.316987145599999	-34.458003309699997	0	0
-20.431450031600001	-34.388309567100002	0	0
-20.183012576500001	-33.958003293300003	0	0
-13.312917628499999	-21.743187791	0	0
-20.498141865699999	-31.4788212333	0	0
-12.173694062699999	-22.400918757900001	0	0
-17.012387856299998	-33.491322249600003	0	0
-26.391560556600002	-30.0580357863	0	0
-26.059086357999998	-29.688785780900002	0	0
-27.134705412199999	-29.388905150799999	0	0
-26.802231206599998	-29.019655152999999	0	0
-17.5426613723	-18.500135732699999	0	0
-26.595023230799999	-26.5291301058	0	0
-16.5650825321	-19.380351597699999	0	0
-23.603863798900001	-29.222382156199998	0	0
-32.064258678800002	-23.9140815849	0	0
-31.662278446199998	-23.622025850899998	0	0
-32.652043954600003	-23.105064555799999	0	0
-32.250063716600003	-22.813008830600001	0	0
-21.005706630100001	-14.448538969199999	0	0
-31.529574458700001	-20.419988691699999	0	0
25.486611914699999	0.65773096669999997	0	0
37.510529973499999	2.0125009662000002	0	0
-20.232497401900002	-15.512770075300001	0	0
-29.163737624500001	-23.676283737999999	0	0
-36.335594830399998	-16.7249672658	0	0
-35.8816770289	-16.522870040099999	0	0
-36.7423314893	-15.811421769300001	0	0
-36.288413684299996	-15.6093245533	0	0
11.884185909399999	38.193796853000002	0	0
11.7306431231	37.721240748500001	0	0
-23.5507017067	-9.7654717210000008	0	0
-35.0861319821	-13.4183957858	0	0
-23.015655043900001	-10.967206062000001	0	0
-33.449016167899998	-17.095418109000001	0	0
-39.018891125499998	-8.8048916216999995	0	0
-38.532874141100002	-8.7015855229000003	0	0
-39.226802823699998	-7.8267439796999998	0	0
-38.740785838000001	-7.7234378910999997	0	0
-25.066418105	-4.6556064986000001	0	0
-37.109257171000003	-5.8303545953000002	0	0
-24.792918114199999	-5.9423225173000001	0	0
-36.272412193599997	-9.7674006756999994	0	0
-39.996874640100003	-0.49999996320000001	0	0
-39.4999997472	-0.49999996349999998	0	0
-39.9968746387	0.50000007869999996	0	0
-39.499999746599997	0.50000006809999997	0	0
-25.486611745099999	0.65773106790000002	0	0
-37.5105297466	2.0125010681000002	0	0
-25.4866116884	-0.65773096409999998	0	0
-37.510529747200003	-2.0125009635	0	0
-39.226802801600002	7.8267440930000003	0	0
-38.740785817300001	7.7234379936000002	0	0
-39.018891100700003	8.8048917343999999	0	0
-38.532874119399999	8.7015856251999999	0	0
-24.7929181487	5.9423226306999997	0	0
-36.272412171900001	9.7674007779000007	0	0
-25.066418028499999	4.6556065884000004	0	0
-37.109257150399998	5.8303546977999998	0	0
-36.7423314447	15.811421875500001	0	0
-36.288413643399998	15.6093246493	0	0
-36.335594783300003	16.7249673709	0	0
-35.881676986899997	16.522870135600002	0	0
-23.0156550546	10.9672061802	0	0
-33.449016125900002	17.0954182045	0	0
-23.550701613699999	9.7654717929999997	0	0
-35.086131941200001	13.4183958818	0	0
-32.652043889399998	23.105064650599999	0	0
-32.250063657200002	22.813008916000001	0	0
-32.064258611299998	23.914081677999999	0	0
-31.662278385800001	23.622025935700002	0	0
-20.232497388300001	15.5127701931	0	0
-29.1637375641	23.676283822799999	0	0
-21.005706524800001	14.4485390204	0	0
-31.529574399200001	20.419988777099999	0	0
-27.134705329300001	29.388905229999999	0	0
-26.802231131199999	29.019655224200001	0	0
-26.391560471799998	30.058035863299999	0	0
-26.059086281799999	29.6887858513	0	0
-16.5650824949	19.380351710100001	0	0
-23.603863722700002	29.222382226600001	0	0
-17.542661259100001	18.500135760799999	0	0
-26.5950231554	26.529130176999999	0	0
-20.4314499346	34.388309627300004	0	0
-20.183012488500001	33.958003347400002	0	0
-19.5654244939	34.888309647	0	0
-19.316987056999999	34.458003362699998	0	0
-12.1736940034	22.400918860299999	0	0
-17.012387767700002	33.491322302699999	0	0
-13.3129175125	21.743187795099999	0	0
-20.498141777699999	31.478821287399999	0	0
-12.835242131899999	37.8847798806	0	0
-12.6816993462	37.412223775800001	0	0
-11.8841855753	38.193796886599998	0	0
-11.7306427997	37.721240779399999	0	0
-7.2502566632000001	24.442458364699998	0	0
-9.6773888278999998	36.296530885000003	0	0
-8.5013353832000007	24.035958187399999	0	0
-13.5053932384	35.052736855299997	0	0
-4.6780726527000001	39.725503461800002	0	0
-4.6261350840000004	39.231350501500003	0	0
-3.6835507156	39.830031927999997	0	0
-3.6316131571999999	39.335878967500001	0	0
-2.0099483113000001	25.415745150700001	0	0
-1.9194415541000001	37.5154068975	0	0
-3.3182040986999999	25.278241869599999	0	0
-5.9223942034999997	37.094679621099999	0	0
3.6835510542000001	39.830031917600003	0	0
3.6316134848999999	39.335878957399999	0	0
4.6780729910999996	39.725503448600001	0	0
4.6261354117	39.231350490300002	0	0
3.3182044315999999	25.278241915500001	0	0
5.9223945311000001	37.094679609899998	0	0
2.0099486323	25.415745083699999	0	0
1.9194418818000001	37.515406887499999	0	0
12.8352424651	37.884779844400001	0	0
12.6816996693	37.412223743799998	0	0
8.5013357233000004	24.035958210099999	0	0
13.5053935614	35.052736823300002	0	0
7.2502569682000004	24.442458279499998	0	0
9.6773891512999999	36.296530853999997	0	0
19.5654248186	34.888309591899997	0	0
19.316987371900002	34.458003312300001	0	0
20.4314502579	34.388309569699999	0	0
20.1830128028	33.958003296000001	0	0
13.3129178548	21.743187793600001	0	0
20.498142091999998	31.4788212359	0	0
12.173694289	22.400918760500002	0	0
17.012388082600001	33.4913222522	0	0
26.391560782900001	30.0580357889	0	0
26.059086584300001	29.688785783499998	0	0
27.134705638500002	29.388905153500001	0	0
26.802231432900001	29.019655155599999	0	0
17.542661598599999	18.500135735299999	0	0
26.595023457100002	26.5291301084	0	0
16.565082758399999	19.380351600299999	0	0
23.6038640252	29.2223821589	0	0
32.064258905099997	23.9140815875	0	0
31.662278672500001	23.622025853499999	0	0
32.652044180899999	23.105064558500001	0	0
32.250063942899999	22.813008833200001	0	0
21.0057068564	14.4485389719	0	0
31.529574685	20.419988694299999	0	0
20.232497628200001	15.512770077900001	0	0
29.1637378508	23.676283740700001	0	0
36.335595056800003	16.7249672684	0	0
35.881677255200003	16.522870042699999	0	0
36.742331715600002	15.811421771899999	0	0
36.288413910599999	15.609324555900001	0	0
23.550701932999999	9.7654717235999993	0	0
35.086132208400002	13.4183957884	0	0
23.0156552702	10.967206064699999	0	0
33.449016394200001	17.095418111600001	0	0
39.018891351800001	8.8048916243999997	0	0
38.532874367399998	8.7015855256000005	0	0
39.226803050000001	7.8267439824	0	0
38.740786064300003	7.7234378937999999	0	0