[Format]      =  4.0
[Frequency]   =  0
[Precision]   =  1e-008
[MinAngle]    =  20
[DoSmartMesh] =  1
[Depth]       =  110
[LengthUnits] =  millimeters
[ProblemType] =  planar
[Coordinates] =  cartesian
[ACSolver]    =  0
[PrevType]    =  0
[PrevSoln]    =  ""
[Comment]     =  "Add comments here."
[PointProps]   = 0
[BdryProps]   = 1
  <BeginBdry>
    <BdryName> = "A = 0"
    <BdryType> = 0
    <A_0> = 0
    <A_1> = 0
    <A_2> = 0
    <Phi> = 0
    <c0> = 0
    <c0i> = 0
    <c1> = 0
    <c1i> = 0
    <Mu_ssd> = 0
    <Sigma_ssd> = 0
    <innerangle> = 0
    <outerangle> = 0
  <EndBdry>
[BlockProps]  = 5
  <BeginBlock>
    <BlockName> = "Air"
    <Mu_x> = 1
    <Mu_y> = 1
    <H_c> = 0
    <H_cAngle> = 0
    <J_re> = 0
    <J_im> = 0
    <Sigma> = 0
    <d_lam> = 0
    <Phi_h> = 0
    <Phi_hx> = 0
    <Phi_hy> = 0
    <LamType> = 0
    <LamFill> = 1
    <NStrands> = 0
    <WireD> = 0
    <BHPoints> = 0
  <EndBlock>
  <BeginBlock>
    <BlockName> = "1020 Steel"
    <Mu_x> = 760
    <Mu_y> = 760
    <H_c> = 0
    <H_cAngle> = 0
    <J_re> = 0
    <J_im> = 0
    <Sigma> = 0
    <d_lam> = 0
    <Phi_h> = 20
    <Phi_hx> = 0
    <Phi_hy> = 0
    <LamType> = 0
    <LamFill> = 1
    <NStrands> = 0
    <WireD> = 0
    <BHPoints> = 0
  <EndBlock>
  <BeginBlock>
    <BlockName> = "M-19 Steel"
    <Mu_x> = 7000
    <Mu_y> = 7000
    <H_c> = 0
    <H_cAngle> = 0
    <J_re> = 0
    <J_im> = 0
    <Sigma> = 0
    <d_lam> = 0
    <Phi_h> = 0
    <Phi_hx> = 0
    <Phi_hy> = 0
    <LamType> = 0
    <LamFill> = 1
    <NStrands> = 0
    <WireD> = 0
    <BHPoints> = 0
  <EndBlock>
  <BeginBlock>
    <BlockName> = "20 AWG"
    <Mu_x> = 1
    <Mu_y> = 1
    <H_c> = 0
    <H_cAngle> = 0
    <J_re> = 0
    <J_im> = 0
    <Sigma> = 0
    <d_lam> = 0
    <Phi_h> = 0
    <Phi_hx> = 0
    <Phi_hy> = 0
    <LamType> = 0
    <LamFill> = 1
    <NStrands> = 1
    <WireD> = 0
    <BHPoints> = 0
  <EndBlock>
  <BeginBlock>
    <BlockName> = "Aluminum, 1100"
    <Mu_x> = 1
    <Mu_y> = 1
    <H_c> = 0
    <H_cAngle> = 0
    <J_re> = 0
    <J_im> = 0
    <Sigma> = 4.5999999999999996
    <d_lam> = 0
    <Phi_h> = 0
    <Phi_hx> = 0
    <Phi_hy> = 0
    <LamType> = 0
    <LamFill> = 1
    <NStrands> = 0
    <WireD> = 0
    <BHPoints> = 0
  <EndBlock>
[CircuitProps]  = 6
  <BeginCircuit>
    <CircuitName> = "as"
    <TotalAmps_re> = 0
    <TotalAmps_im> = 0
    <CircuitType> = 1
  <EndCircuit>
  <BeginCircuit>
    <CircuitName> = "bs"
    <TotalAmps_re> = 0
    <TotalAmps_im> = 0
    <CircuitType> = 1
  <EndCircuit>
  <BeginCircuit>
    <CircuitName> = "cs"
    <TotalAmps_re> = 0
    <TotalAmps_im> = 0
    <CircuitType> = 1
  <EndCircuit>
  <BeginCircuit>
    <CircuitName> = "ar"
    <TotalAmps_re> = 0
    <TotalAmps_im> = 0
    <CircuitType> = 1
  <EndCircuit>
  <BeginCircuit>
    <CircuitName> = "br"
    <TotalAmps_re> = 0
    <TotalAmps_im> = 0
    <CircuitType> = 1
  <EndCircuit>
  <BeginCircuit>
    <CircuitName> = "cr"
    <TotalAmps_re> = 0
    <TotalAmps_im> = 0
    <CircuitType> = 1
  <EndCircuit>
[NumPoints] = 874
41.9380592861	-5.4655007356	0	0
52.524742519100002	-7.3322186258000004	0	0
42.250000182000001	1.9000000531000001	0	0
53.0000000685	1.9000000531000001	0	0
40.296178664199999	2.5216384519999999	0	0
40.931138181999998	2.5771910531	0	0
40.121867082500003	-4.5140288748000001	0	0
40.756826746400002	-4.5695798056000001	0	0
40.121867184700001	4.5140280396000003	0	0
40.756827183200002	4.5695800394999999	0	0
41.938059181	5.4655010723000004	0	0
52.524742067299997	7.3322190522000001	0	0
40.296178607100003	-2.5216392911000001	0	0
40.93113864	-2.5771908976	0	0
42.2500001242	-1.8999997021999999	0	0
52.999999684700001	-1.8999995536000001	0	0
40.351851683699998	-12.6649350491	0	0
50.4535472504	-16.341651551000002	0	0
38.7284728753	-11.4125397173	0	0
39.344139757299999	-11.577506293200001	0	0
39.246111036599999	-9.4806878869000002	0	0
39.861778164699999	-9.6456551922999996	0	0
41.278196196499998	-9.2077699461000009	0	0
51.864879134299997	-11.0744876333	0	0
37.539573490199999	-19.479551718700002	0	0
46.849346482500003	-24.8545516619	0	0
36.158333620699999	-17.964286314399999	0	0
36.736000994100003	-18.2336561095	0	0
37.003570245100001	-16.151670577600001	0	0
37.5812377341	-16.421041133700001	0	0
39.052175168399998	-16.2357667584	0	0
49.153870479600002	-19.912483009199999	0	0
33.5866743554	-25.702292065400002	0	0
41.821652031900001	-32.612258796500001	0	0
32.489541699299998	-23.9701971611	0	0
33.0116574332	-24.335785510400001	0	0
33.6366946996	-22.3318929297	0	0
34.158810415300003	-22.697482048600001	0	0
35.639573562400003	-22.770448012300001	0	0
44.949346346799999	-28.145447663900001	0	0
28.613261119299999	-31.144081272499999	0	0
35.523227850399998	-39.379058949099999	0	0
27.833571497200001	-29.247785695499999	0	0
28.284271369300001	-29.698484382	0	0
29.24778521	-27.833572014600001	0	0
29.698484930500001	-28.284271455900001	0	0
31.144081551500001	-28.6132607246	0	0
39.379059073900002	-35.523227132400002	0	0
22.770448426400002	-35.639573328700003	0	0
28.1454483696	-44.949346321100002	0	0
22.331892312800001	-33.636695060400001	0	0
22.6974820356	-34.158809832599999	0	0
23.970196570199999	-32.489542097200001	0	0
24.3357860126	-33.011657586299997	0	0
25.702292385700002	-33.586673987799998	0	0
32.612259021100002	-41.821651319099999	0	0
16.235767183699998	-39.052174982700002	0	0
19.9124836857	-49.153870549399997	0	0
16.1516698844	-37.003570465800003	0	0
16.421041199000001	-37.581237130600002	0	0
17.9642856404	-36.158333882500003	0	0
18.2336565544	-36.736001204600001	0	0
19.479552075000001	-37.539573156300001	0	0
24.854551983899999	-46.849345792100003	0	0
9.2077703742000008	-41.278196060100001	0	0
11.074488264399999	-51.864879293100003	0	0
9.4806871429000008	-39.246111106199997	0	0
9.6456553383999992	-39.861777554200003	0	0
11.412538984999999	-38.728472988599997	0	0
11.5775066718	-39.344140014499999	0	0
12.6649354349	-40.351851389300002	0	0
16.341651964899999	-50.453546598899997	0	0
1.9000001245	-42.250000036800003	0	0
1.9000001245	-52.999999923200001	0	0
2.5216385233	-40.296178519000001	0	0
2.5771911245000001	-40.9311380368	0	0
4.514028111	-40.121867039500003	0	0
4.5695801107999996	-40.756827037999997	0	0
5.4655011436000001	-41.938059035800002	0	0
7.3322191235999998	-52.524741921999997	0	0
-5.4655006643000004	-41.9380591408	0	0
-7.3322185544999998	-52.524742373899997	0	0
-4.5140288034999996	-40.121866937199997	0	0
-4.5695797343000004	-40.756826601100002	0	0
-2.5216392197999999	-40.296178461799997	0	0
-2.5771908262999998	-40.931138494800003	0	0
-1.8999996309	-42.249999979000002	0	0
-1.8999994822999999	-52.999999539400001	0	0
-12.6649349777	-40.351851538399998	0	0
-16.341651479599999	-50.453547105200002	0	0
-11.412539646000001	-38.72847273	0	0
-11.5775062219	-39.344139611999999	0	0
-9.4806878155999996	-39.246110891400001	0	0
-9.6456551209000008	-39.861778019399999	0	0
-9.2077698747000003	-41.278196051199998	0	0
-11.074487562	-51.864878989099999	0	0
-19.479551647400001	-37.539573344899999	0	0
-24.8545515906	-46.849346337199997	0	0
-17.964286243099998	-36.158333475399999	0	0
-18.233656038100001	-36.736000848800003	0	0
-16.151670506199999	-37.003570099800001	0	0
-16.4210410624	-37.581237588800001	0	0
-16.235766687000002	-39.052175023099998	0	0
-19.9124829378	-49.153870334399997	0	0
-25.702291993999999	-33.5866742101	0	0
-32.6122587252	-41.821651886700003	0	0
-23.970197089799999	-32.489541553999999	0	0
-24.3357854391	-33.011657288000002	0	0
-22.3318928584	-33.636694554400002	0	0
-22.697481977300001	-34.158810270099998	0	0
-22.770447941	-35.639573417100003	0	0
-28.145447592499998	-44.949346201499999	0	0
-31.144081201199999	-28.613260973999999	0	0
-39.379058877699997	-35.5232277052	0	0
-29.2477856241	-27.833571351900002	0	0
-29.698484310600001	-28.284271224000001	0	0
-27.833571943300001	-29.247785064799999	0	0
-28.284271384499998	-29.6984847853	0	0
-28.613260653299999	-31.1440814063	0	0
-35.523227061100002	-39.379058928600003	0	0
-35.639573257400002	-22.770448281099998	0	0
-44.9493462497	-28.145448224399999	0	0
-33.6366949891	-22.3318921676	0	0
-34.158809761299999	-22.697481890300001	0	0
-32.489542025799999	-23.970196425000001	0	0
-33.011657515000003	-24.3357858673	0	0
-33.586673916400002	-25.702292240399998	0	0
-41.821651247699997	-32.612258875899997	0	0
-39.0521749113	-16.235767038500001	0	0
-49.153870478100004	-19.9124835404	0	0
-37.003570394500002	-16.151669739100001	0	0
-37.581237059199999	-16.4210410538	0	0
-36.1583338111	-17.9642854951	0	0
-36.7360011333	-18.233656409200002	0	0
-37.539573085000001	-19.479551929700001	0	0
-46.849345720700001	-24.854551838599999	0	0
-41.278195988699999	-9.2077702288999994	0	0
-51.864879221800003	-11.0744881191	0	0
-39.246111034800002	-9.4806869975999994	0	0
-39.861777482900003	-9.6456551930999996	0	0
-38.728472917300003	-11.4125388398	0	0
-39.344139943099997	-11.577506526600001	0	0
-40.351851318000001	-12.664935289600001	0	0
-50.453546527599997	-16.341651819700001	0	0
-42.249999965400001	-1.8999999792	0	0
-52.9999998519	-1.8999999792	0	0
-40.296178447599999	-2.5216383781	0	0
-40.931137965399998	-2.5771909792000001	0	0
-40.121866968100001	-4.5140279657000004	0	0
-40.756826966600002	-4.5695799656	0	0
-41.9380589644	-5.4655009983999996	0	0
-52.524741850700003	-7.3322189783000002	0	0
-41.9380590695	5.4655008094999999	0	0
-52.524742302500002	7.3322186997000003	0	0
-40.121866865800001	4.5140289487	0	0
-40.756826529800001	4.5695798796	0	0
-40.296178390500003	2.521639365	0	0
-40.9311384234	2.5771909714999999	0	0
-42.249999907599999	1.8999997761	0	0
-52.9999994681	1.8999996275	0	0
-40.351851467099998	12.664935122999999	0	0
-50.4535470338	16.341651624899999	0	0
-38.728472658699999	11.4125397913	0	0
-39.344139540699999	11.5775063672	0	0
-39.246110819999998	9.4806879607999992	0	0
-39.861777948099999	9.6456552662000004	0	0
-41.278195979899998	9.2077700199999999	0	0
-51.864878917699997	11.074487707299999	0	0
-37.539573273499997	19.479551792599999	0	0
-46.849346265900003	24.854551735899999	0	0
-36.158333404099999	17.964286388400001	0	0
-36.736000777500003	18.233656183400001	0	0
-37.0035700285	16.151670651500002	0	0
-37.5812375175	16.421041207599998	0	0
-39.052174951700003	16.235766832300001	0	0
-49.153870263000002	19.9124830831	0	0
-33.586674138799999	25.702292139299999	0	0
-41.821651815300001	32.612258870399998	0	0
-32.489541482699998	23.970197235099999	0	0
-33.0116572166	24.335785584300002	0	0
-33.636694482999999	22.331893003699999	0	0
-34.158810198700003	22.697482122499999	0	0
-35.639573345800002	22.770448086199998	0	0
-44.949346130099997	28.145447737800001	0	0
-28.613260902699999	31.1440813464	0	0
-35.523227633799998	39.379059023000003	0	0
-27.833571280499999	29.2477857694	0	0
-28.284271152700001	29.698484455900001	0	0
-29.2477849934	27.833572088499999	0	0
-29.698484713900001	28.284271529800002	0	0
-31.144081334900001	28.613260798599999	0	0
-39.379058857300002	35.5232272063	0	0
-22.770448209800001	35.6395734026	0	0
-28.145448153	44.949346394999999	0	0
-22.331892096200001	33.636695134299998	0	0
-22.697481819	34.158809906499997	0	0
-23.970196353599999	32.489542171099998	0	0
-24.335785796	33.011657660200001	0	0
-25.702292169100001	33.586674061700002	0	0
-32.612258804500001	41.821651393000003	0	0
-16.235766967099998	39.052175056599999	0	0
-19.912483469000001	49.153870623400003	0	0
-16.1516696678	37.0035705397	0	0
-16.421040982400001	37.581237204499999	0	0
-17.9642854238	36.1583339564	0	0
-18.233656337799999	36.736001278499998	0	0
-19.479551858400001	37.539573230199998	0	0
-24.854551767299998	46.849345866	0	0
-9.2077701576000006	41.278196133999998	0	0
-11.074488047799999	51.864879367	0	0
-9.4806869263000006	39.246111180100002	0	0
-9.6456551218000008	39.8617776281	0	0
-11.412538768399999	38.728473062600003	0	0
-11.5775064552	39.344140088400003	0	0
-12.6649352183	40.351851463199999	0	0
-16.341651748299999	50.453546672800002	0	0
-1.8999999079000001	42.2500001107	0	0
-1.8999999079000001	52.9999999972	0	0
-2.5216383066999999	40.296178592899999	0	0
-2.5771909078999999	40.931138110699997	0	0
-4.5140278942999998	40.1218671134	0	0
-4.5695798942000003	40.756827111900002	0	0
-5.4655009269999999	41.938059109699999	0	0
-7.3322189069999997	52.524741995900001	0	0
5.4655008808999996	41.938059214699997	0	0
7.3322187711	52.524742447800001	0	0
4.5140290200999997	40.121867011100001	0	0
4.5695799508999997	40.756826675100001	0	0
2.5216394364000001	40.296178535800003	0	0
2.5771910429	40.9311385687	0	0
1.8999998474999999	42.250000052899999	0	0
1.8999996989000001	52.9999996134	0	0
12.6649351943	40.351851612300003	0	0
16.341651696300001	50.453547179099999	0	0
11.412539862599999	38.728472803999999	0	0
11.5775064385	39.344139685999998	0	0
9.4806880321999998	39.246110965299998	0	0
9.6456553374999991	39.861778093300003	0	0
9.2077700914000005	41.278196125100003	0	0
11.0744877786	51.864879062999997	0	0
19.479551864000001	37.539573418800003	0	0
24.8545518072	46.849346411200003	0	0
17.964286459699998	36.158333549300004	0	0
18.2336562548	36.736000922700001	0	0
16.151670722799999	37.003570173699998	0	0
16.421041279000001	37.5812376628	0	0
16.235766903599998	39.052175097000003	0	0
19.9124831544	49.153870408300001	0	0
25.7022922106	33.586674283999997	0	0
32.6122589418	41.821651960600001	0	0
23.970197306399999	32.489541627900003	0	0
24.335785655700001	33.011657361899999	0	0
22.331893075	33.636694628299999	0	0
22.697482193900001	34.158810344000003	0	0
22.770448157600001	35.639573491	0	0
28.145447809099998	44.949346275400003	0	0
31.144081417799999	28.6132610479	0	0
39.379059094299997	35.523227779099997	0	0
29.247785840700001	27.833571425799999	0	0
29.698484527200002	28.284271297899998	0	0
27.833572159900001	29.247785138699999	0	0
28.284271601099999	29.698484859200001	0	0
28.6132608699	31.144081480200001	0	0
35.523227277700002	39.3790590025	0	0
35.639573474000002	22.770448354999999	0	0
44.9493464663	28.1454482983	0	0
33.636695205700001	22.3318922415	0	0
34.158809977899999	22.6974819643	0	0
32.489542242399999	23.970196498899998	0	0
33.011657731600003	24.335785941200001	0	0
33.586674133000002	25.702292314299999	0	0
41.821651464299997	32.612258949800001	0	0
39.052175128000002	16.235767112400001	0	0
49.153870694699997	19.912483614300001	0	0
37.003570611100002	16.151669813000002	0	0
37.5812372758	16.421041127700001	0	0
36.1583340277	17.964285569000001	0	0
36.7360013499	18.233656483099999	0	0
37.539573301600001	19.479552003599998	0	0
46.849345937300001	24.8545519125	0	0
41.278196205299999	9.2077703029000002	0	0
51.864879438400003	11.074488193100001	0	0
39.246111251400002	9.4806870715000002	0	0
39.861777699500003	9.6456552670000004	0	0
38.728473133900003	11.412538913700001	0	0
39.344140159699997	11.5775066005	0	0
40.351851534600002	12.6649353635	0	0
50.453546744199997	16.341651893600002	0	0
53.707932830099999	5.6087404733000001	0	0
40.783991626000002	4.2590882347000001	0	0
53.865936197899998	3.8027537397	0	0
40.903973741000001	2.8876828375999999	0	0
53.707932847999999	-5.6087402935000004	0	0
40.783991331599999	-4.2590880527000001	0	0
53.865936211600001	-3.8027535595000002	0	0
40.9039740626	-2.8876827094999999	0	0
51.918041135999999	-14.8498155909	0	0
39.424807983299999	-11.2764487078	0	0
52.387250378700003	-13.0987028496	0	0
39.781109945600001	-9.9467128758999994	0	0
48.5506460159	-23.639686756100001	0	0
36.867721794300003	-17.951180175099999	0	0
49.316804452299998	-21.996654681900001	0	0
37.449516933200002	-16.703517204800001	0	0
43.7080640844	-31.7112780014	0	0
33.190428534500001	-24.080474116400001	0	0
44.747892378099998	-30.226249292599999	0	0
33.980039299200001	-22.952793615800001	0	0
37.537434742999999	-38.819338111299999	0	0
28.504660898899999	-29.478095037100001	0	0
38.8193382376	-37.5374346137	0	0
29.4780953657	-28.504661007500001	0	0
30.226249441899999	-44.747892276199998	0	0
22.952793566	-33.9800389567	0	0
31.711278148200002	-43.708063979000002	0	0
24.080474421200002	-33.1904286985	0	0
21.996654846599998	-49.316804377799997	0	0
16.703517215200002	-37.449516587300003	0	0
23.639686918999999	-48.550645937600002	0	0
17.951180446799999	-36.867722008699999	0	0
13.098703024700001	-52.387250334000001	0	0
9.9467129461999999	-39.781109606800001	0	0
14.849815765000001	-51.918041087200002	0	0
11.2764489382	-39.424808241599997	0	0
3.8027537397	-53.865936197899998	0	0
2.8876828375999999	-40.903973741000001	0	0
5.6087404733000001	-53.707932830099999	0	0
4.2590882347000001	-40.783991626000002	0	0
-5.6087402935000004	-53.707932847999999	0	0
-4.2590880527000001	-40.783991331599999	0	0
-3.8027535595000002	-53.865936211600001	0	0
-2.8876827094999999	-40.9039740626	0	0
-14.8498155909	-51.918041135999999	0	0
-11.2764487078	-39.424807983299999	0	0
-13.0987028496	-52.387250378700003	0	0
-9.9467128758999994	-39.781109945600001	0	0
-23.639686756100001	-48.5506460159	0	0
-17.951180175099999	-36.867721794300003	0	0
-21.996654681900001	-49.316804452299998	0	0
-16.703517204800001	-37.449516933200002	0	0
-31.7112780014	-43.7080640844	0	0
-24.080474116400001	-33.190428534500001	0	0
-30.226249292599999	-44.747892378099998	0	0
-22.952793615800001	-33.980039299200001	0	0
-38.819338111299999	-37.537434742999999	0	0
-29.478095037100001	-28.504660898899999	0	0
-37.5374346137	-38.8193382376	0	0
-28.504661007500001	-29.4780953657	0	0
-44.747892276199998	-30.226249441899999	0	0
-33.9800389567	-22.952793566	0	0
-43.708063979000002	-31.711278148200002	0	0
-33.1904286985	-24.080474421200002	0	0
-49.316804377799997	-21.996654846599998	0	0
-37.449516587300003	-16.703517215200002	0	0
-48.550645937600002	-23.639686918999999	0	0
-36.867722008699999	-17.951180446799999	0	0
-52.387250334000001	-13.098703024700001	0	0
-39.781109606800001	-9.9467129461999999	0	0
-51.918041087200002	-14.849815765000001	0	0
-39.424808241599997	-11.2764489382	0	0
-53.865936197899998	-3.8027537397	0	0
-40.903973741000001	-2.8876828375999999	0	0
-53.707932830099999	-5.6087404733000001	0	0
-40.783991626000002	-4.2590882347000001	0	0
-53.707932847999999	5.6087402935000004	0	0
-40.783991331599999	4.2590880527000001	0	0
-53.865936211600001	3.8027535595000002	0	0
-40.9039740626	2.8876827094999999	0	0
-51.918041135999999	14.8498155909	0	0
-39.424807983299999	11.2764487078	0	0
-52.387250378700003	13.0987028496	0	0
-39.781109945600001	9.9467128758999994	0	0
-48.5506460159	23.639686756100001	0	0
-36.867721794300003	17.951180175099999	0	0
-49.316804452299998	21.996654681900001	0	0
-37.449516933200002	16.703517204800001	0	0
-43.7080640844	31.711278001299998	0	0
-33.190428534500001	24.080474116400001	0	0
-44.747892378099998	30.226249292599999	0	0
-33.980039299200001	22.952793615800001	0	0
-37.537434742999999	38.819338111299999	0	0
-28.504660898899999	29.478095037100001	0	0
-38.8193382376	37.5374346137	0	0
-29.4780953657	28.504661007500001	0	0
-30.226249441899999	44.747892276199998	0	0
-22.952793566	33.9800389567	0	0
-31.711278148200002	43.708063979000002	0	0
-24.080474421200002	33.1904286985	0	0
-21.996654846599998	49.316804377799997	0	0
-16.703517215200002	37.449516587300003	0	0
-23.639686918999999	48.550645937600002	0	0
-17.951180446799999	36.867722008699999	0	0
-13.098703024700001	52.387250334000001	0	0
-9.9467129461999999	39.781109606800001	0	0
-14.849815765000001	51.918041087200002	0	0
-11.2764489382	39.424808241599997	0	0
-3.8027537397	53.865936197899998	0	0
-2.8876828375999999	40.903973741000001	0	0
-5.6087404733000001	53.707932830099999	0	0
-4.2590882347000001	40.783991626000002	0	0
5.6087402935000004	53.707932847999999	0	0
4.2590880527000001	40.783991331599999	0	0
3.8027535595000002	53.865936211600001	0	0
2.8876827094999999	40.9039740626	0	0
14.8498155909	51.918041135999999	0	0
11.2764487078	39.424807983299999	0	0
13.0987028496	52.387250378700003	0	0
9.9467128758999994	39.781109945600001	0	0
23.639686756100001	48.5506460159	0	0
17.951180175099999	36.867721794300003	0	0
21.996654681900001	49.316804452299998	0	0
16.703517204800001	37.449516933200002	0	0
31.7112780014	43.7080640844	0	0
24.080474116400001	33.190428534500001	0	0
30.226249292599999	44.747892378099998	0	0
22.952793615800001	33.980039299200001	0	0
38.819338111299999	37.537434742999999	0	0
29.478095037100001	28.504660898899999	0	0
37.5374346137	38.8193382376	0	0
28.504661007500001	29.4780953657	0	0
44.747892276199998	30.226249441899999	0	0
33.9800389567	22.952793566	0	0
43.708063979000002	31.711278148200002	0	0
33.1904286985	24.080474421200002	0	0
49.316804377799997	21.996654846599998	0	0
37.449516587300003	16.703517215200002	0	0
48.550645937600002	23.639686918999999	0	0
36.867722008699999	17.951180446799999	0	0
52.387250334000001	13.098703024700001	0	0
39.781109606800001	9.9467129461999999	0	0
51.918041087200002	14.849815765000001	0	0
39.424808241599997	11.2764489382	0	0
39.725503572880825	4.6780727789649115	0	1
39.2313506125912	4.6261352103716042	0	1
39.830032039125442	3.6835508418792844	0	1
39.335879078575694	3.6316132834142691	0	1
25.415745261811658	2.0099484375646721	0	1
37.515407008618162	1.9194416803307623	0	1
39.830032028703727	-3.6835509279377172	0	1
39.335879068480068	-3.631613358650184	0	1
39.725503559659842	-4.6780728648032923	0	1
39.231350601384911	-4.6261352853564066	0	1
25.278242026571789	-3.3182043053286736	0	1
37.094679720998911	-5.9223944048784709	0	1
25.415745194850022	-2.0099485060003324	0	1
37.515406998579365	-1.9194417555493311	0	1
38.193796964143459	-11.884185783063819	0	1
37.721240859567843	-11.730642996834444	0	1
37.884779955491418	-12.835242338824932	0	1
37.412223854837748	-12.681699543033222	0	1
24.035958321187518	-8.5013355970308577	0	1
35.052736934356787	-13.505393435156787	0	1
24.442458390603466	-7.2502568419336608	0	1
36.296530965123175	-9.677389025009802	0	1
34.88830970293921	-19.565424692274249	0	1
34.458003423395297	-19.316987245581974	0	1
34.388309680735574	-20.431450131699894	0	1
33.958003407029182	-20.183012676450559	0	1
21.743187904743287	-13.312917728547905	0	1
31.478821346946258	-20.498141965771179	0	1
22.400918871647473	-12.173694162741448	0	1
33.491322363248898	-17.012387956328286	0	1
30.058035899954156	-26.391560656605275	0	1
29.68878589463085	-26.059086457975855	0	1
29.388905264564233	-27.134705512223498	0	1
29.019655266648478	-26.802231306581362	0	1
18.500135846391675	-17.542661472298057	0	1
26.529130219469053	-26.595023330820879	0	1
19.380351711311626	-16.565082632121918	0	1
29.222382269889394	-23.603863898859522	0	1
23.914081698582827	-32.064258778819152	0	1
23.622025964634634	-31.662278546203101	0	1
23.105064669553755	-32.652044054562431	0	1
22.813008944295241	-32.250063816608829	0	1
14.448539082923384	-21.005706730130406	0	1
20.419988805364483	-31.529574558759272	0	1
15.512770188963311	-20.232497501899953	0	1
23.676283851712888	-29.163737724498731	0	1
16.724967379468872	-36.335594930507852	0	1
16.522870153771887	-35.881677128929354	0	1
15.811421882946911	-36.742331589258569	0	1
15.609324667054187	-36.288413784336946	0	1
9.7654718347263412	-23.550701806780637	0	1
13.418395899472911	-35.086132082079324	0	1
10.967206175744455	-23.015655143956241	0	1
17.095418222745909	-33.449016267902422	0	1
8.8048917354180212	-39.018891225606517	0	1
8.7015856366938102	-38.532874241158737	0	1
7.8267440934876147	-39.226802923702714	0	1
7.7234380048866189	-38.740785937989834	0	1
4.6556066123398541	-25.066418205003014	0	1
5.8303547090770893	-37.109257270991002	0	1
5.9423226309837709	-24.792918214246146	0	1
9.7674007893709511	-36.272412293657574	0	1
0.50000007692806259	-39.99687474009329	0	1
0.50000007724025153	-39.499999847208564	0	1
-0.49999996497534216	-39.996874738733595	0	1
-0.49999995441987899	-39.499999846682719	0	1
-0.65773095422095817	-25.486611845083853	0	1
-2.0125009543709313	-37.510529846676675	0	1
0.6577310778022456	-25.486611788378887	0	1
2.0125010772626672	-37.510529847264053	0	1
-7.8267439793358555	-39.22680290161248	0	1
-7.723437879895787	-38.740785917399528	0	1
-8.8048916207455648	-39.018891200766525	0	1
-8.7015855114603315	-38.532874219339725	0	1
-5.9423225170425038	-24.792918248739667	0	1
-9.7674006641244357	-36.272412271911037	0	1
-4.6556064746928971	-25.066418128529275	0	1
-5.8303545840631221	-37.109257250400994	0	1
-15.811421761854007	-36.742331544658562	0	1
-15.609324535612025	-36.288413743459657	0	1
-16.724967257127691	-36.335594883316219	0	1
-16.522870021935912	-35.881677086908056	0	1
-10.967206066444284	-23.015655154569579	0	1
-17.095418090809687	-33.449016225964534	0	1
-9.765471679323058	-23.550701713762002	0	1
-13.418395768035213	-35.086132041194148	0	1
-23.105064536890325	-32.65204398945508	0	1
-22.813008802363633	-32.250063757164128	0	1
-23.914081564268937	-32.064258711329771	0	1
-23.622025821986185	-31.662278485865478	0	1
-15.512770079401456	-20.232497488326466	0	1
-23.676283709071559	-29.163737664174807	0	1
-14.448538906661575	-21.005706624830406	0	1
-20.419988663488915	-31.529574499238045	0	1
-29.388905116291898	-27.134705429317755	0	1
-29.019655110529492	-26.802231231209248	0	1
-30.058035749659261	-26.391560571762739	0	1
-29.68878573760659	-26.059086381841578	0	1
-19.380351596403678	-16.565082594846654	0	1
-29.222382112935161	-23.603863822719159	0	1
25.27824198073036	3.3182042249875483	0	1
37.094679732192091	5.9223943298209143	0	1
-18.500135647175707	-17.542661359186987	0	1
-26.529130063318689	-26.595023255422817	0	1
-34.388309513567151	-20.431450034693551	0	1
-33.958003233711054	-20.183012588501086	0	1
-34.888309533366375	-19.565424593918657	0	1
-34.458003249015512	-19.316987157007208	0	1
7.8267442041243855	39.226802927853036	0	1
7.723438104684317	38.740785943640077	0	1
-22.400918746520254	-12.173694103410449	0	1
-33.491322188972653	-17.012387867790448	0	1
-21.743187681401231	-13.31291761251194	0	1
-31.478821173652143	-20.498141877721263	0	1
-37.884779766846023	-12.835242231881708	0	1
-37.412223662093098	-12.681699446198721	0	1
-38.193796772876254	-11.884185675318076	0	1
-37.72124066576427	-11.730642899643325	0	1
-24.442458251000645	-7.2502567632166581	0	1
-36.296530771259398	-9.6773889278756577	0	1
-24.035958073670436	-8.5013354831928609	0	1
-35.05273674160798	-13.505393338426419	0	1
-39.725503348092303	-4.678072752724364	0	1
-39.231350387813123	-4.626135184031603	0	1
-39.830031814347358	-3.6835508155392831	0	1
-39.335878853787158	-3.6316132571737212	0	1
-25.415745037023125	-2.0099484113241242	0	1
-37.515406783829633	-1.9194416540902135	0	1
-25.278241755941828	-3.3182041987470003	0	1
-37.094679507414014	-5.9223943034809139	0	1
-39.830031803915205	3.6835509541782656	0	1
-39.335878843691532	3.6316133848907333	0	1
-39.725503334871313	4.6780728910438407	0	1
-39.231350376606827	4.6261353116964079	0	1
-25.278241801783256	3.3182043315692207	0	1
-37.094679496210389	5.9223944311190202	0	1
-25.415744970061489	2.0099485322408808	0	1
-37.515406773790829	1.919441781789879	0	1
-38.193796739354923	11.884185809304366	0	1
-37.721240634779306	11.730643023074991	0	1
-37.884779730702881	12.835242365065481	0	1
-37.412223630049212	12.681699569273771	0	1
-24.035958096398989	8.5013356232714052	0	1
-35.052736709568265	13.505393461397336	0	1
-24.442458165715479	7.2502568681846622	0	1
-36.296530740345105	9.6773890513498024	0	1
-34.888309478161133	19.565424718614246	0	1
-34.458003198606768	19.316987271822523	0	1
-34.388309455947038	20.431450157940443	0	1
-33.958003182251105	20.183012702790563	0	1
-21.743187679954758	13.312917754788455	0	1
-31.478821122157729	20.498141992011728	0	1
-22.400918646858941	12.173694188981997	0	1
-33.491322138460362	17.012387982568836	0	1
-30.058035675165627	26.391560682845821	0	1
-29.688785669842318	26.059086484216405	0	1
-29.3889050397757	27.134705538464047	0	1
-29.019655041859945	26.802231332821911	0	1
-18.50013562160315	17.542661498538603	0	1
-26.52912999468052	26.595023357061429	0	1
-19.3803514865231	16.565082658362467	0	1
-29.222382045100865	23.603863925100072	0	1
-23.914081473794297	32.064258805059708	0	1
-23.622025739846105	31.662278572443658	0	1
-23.105064444765226	32.65204408080298	0	1
-22.813008719506705	32.250063842849372	0	1
-14.448538858145303	21.005706756470406	0	1
-20.419988580575954	31.529574584999821	0	1
-15.51276996417478	20.232497528140499	0	1
-23.676283626934808	29.163737750838727	0	1
-16.724967154680339	36.335594956748395	0	1
-16.522869928983358	35.881677155169903	0	1
-15.811421658168832	36.742331615598559	0	1
-15.609324442265656	36.288413810577481	0	1
-9.7654716099378103	23.550701833021186	0	1
-13.418395674694832	35.086132108419328	0	1
-10.967205950955925	23.015655170196791	0	1
-17.09541799795738	33.449016294142972	0	1
-8.804891510629492	39.018891251847073	0	1
-8.7015854118058265	38.532874267409746	0	1
-7.8267438686990838	39.226802949943263	0	1
-7.7234377800980889	38.74078596423039	0	1
-4.6556063875513232	25.066418231243563	0	1
-5.8303544842885584	37.109257297231544	0	1
-5.94232240619524	24.792918240486692	0	1
-9.7674005645824202	36.272412319898123	0	1
-0.49999985213953124	39.996874766333846	0	1
-0.49999985245172018	39.499999873449113	0	1
0.50000018976387306	39.996874764974152	0	1
0.500000179208409	39.499999872923276	0	1
0.6577311789990361	25.486611871423857	0	1
2.0125011791594627	37.510529872917225	0	1
-0.6577308530137147	25.486611814619437	0	1
-2.0125008524741359	37.510529873504602	0	1
8.8048918455340974	39.018891227007074	0	1
8.7015857362384104	38.532874245679729	0	1
5.9423227418310365	24.792918274980217	0	1
9.7674008889129631	36.272412298151586	0	1
4.6556066994814271	25.066418154769824	0	1
5.830354808851653	37.109257276641536	0	1